#
# *******************
# Calendar Parameters
# *******************
 &CAL_NML
 TheCalendar='gregorian',
 startDate_1=19850102,
 startDate_2=000000,
 calendarDumps = .TRUE.
 &
